Version 4
SHEET 1 880 680
WIRE 176 -192 64 -192
WIRE 384 -192 176 -192
WIRE 592 -192 384 -192
WIRE 64 -176 64 -192
WIRE 64 -176 -160 -176
WIRE 384 -176 384 -192
WIRE 384 0 384 -96
WIRE 176 80 176 -112
WIRE 336 80 176 80
WIRE 176 96 176 80
WIRE 528 96 384 96
WIRE 640 96 592 96
WIRE -400 160 -528 160
WIRE -160 160 -160 -96
WIRE -160 160 -336 160
WIRE -160 176 -160 160
WIRE 128 176 -160 176
WIRE -528 208 -528 160
WIRE 640 224 640 96
WIRE -160 272 -160 176
WIRE 176 272 176 192
WIRE 384 272 384 96
WIRE -528 352 -528 288
WIRE -160 352 -528 352
WIRE 176 352 -160 352
WIRE 384 352 176 352
WIRE 176 416 176 352
WIRE 640 416 640 304
FLAG 176 416 0
FLAG 640 416 0
FLAG 592 -112 0
SYMBOL nmos 128 96 R0
SYMATTR InstName M1
SYMBOL nmos 336 0 R0
SYMATTR InstName M2
SYMBOL res 160 -208 R0
SYMATTR InstName R1
SYMBOL res 368 -192 R0
SYMATTR InstName R2
SYMBOL res 368 256 R0
SYMATTR InstName R3
SYMBOL res 160 256 R0
SYMATTR InstName R4
SYMBOL res -176 256 R0
SYMATTR InstName R5
SYMBOL res -176 -192 R0
SYMATTR InstName R6
SYMBOL cap -336 144 R90
WINDOW 0 0 32 VBottom 2
WINDOW 3 32 32 VTop 2
SYMATTR InstName C1
SYMBOL cap 592 80 R90
WINDOW 0 0 32 VBottom 2
WINDOW 3 32 32 VTop 2
SYMATTR InstName C2
SYMBOL voltage -528 192 R0
SYMATTR InstName V1
SYMBOL voltage 592 -208 R0
SYMATTR InstName V2
SYMBOL res 624 208 R0
SYMATTR InstName Speaker
SYMATTR Value 30
